data_image0
_chemical_formula_structural       MgAlTi4
_chemical_formula_sum              "Mg1 Al1 Ti4"
_cell_length_a       10.322738413106274
_cell_length_b       11.920911073698047
_cell_length_c       15.99081146470841
_cell_angle_alpha    88.70929623119063
_cell_angle_beta     71.9185331374351
_cell_angle_gamma    63.10695990541391

_space_group_name_H-M_alt    "P 1"
_space_group_IT_number       1

loop_
  _space_group_symop_operation_xyz
  'x, y, z'

loop_
  _atom_site_type_symbol
  _atom_site_label
  _atom_site_symmetry_multiplicity
  _atom_site_fract_x
  _atom_site_fract_y
  _atom_site_fract_z
  _atom_site_occupancy
  Mg  Mg1       1.0  0.6672384623162274  0.5588119783537738  0.1419899005262223  1.0000
  Al  Al1       1.0  0.6713417429072752  0.4314284568187527  0.29526213320964656  1.0000
  Ti  Ti1       1.0  0.7681829865934098  0.39836603814219707  0.4474938542515726  1.0000
  Ti  Ti2       1.0  0.7314786777454221  0.6363638953503012  0.32304016878603126  1.0000
  Ti  Ti3       1.0  0.5816119781688085  0.2579686533820208  0.3911184240548687  1.0000
  Ti  Ti4       1.0  0.6084681275834368  0.3009338983280725  0.1782146394801245  1.0000
